<?xml version="1.0" encoding="UTF-8"?>

<!-- generated on 2023-05-30 17:31:02 by Eclipse SUMO netedit Version 1.15.0
<configuration xmlns:xsi="http://www.w3.org/2001/XMLSchema-instance" xsi:noNamespaceSchemaLocation="http://sumo.dlr.de/xsd/netconvertConfiguration.xsd">

    <input>
        <sumo-net-file value="/home/oscar/Dropbox/itsc2023/scenario/straight/map.net.xml"/>
    </input>

    <output>
        <output-file value="/home/oscar/Dropbox/itsc2023/scenario/straight/map.net.xml"/>
    </output>

    <processing>
        <geometry.min-radius.fix.railways value="false"/>
        <geometry.max-grade.fix value="false"/>
        <offset.disable-normalization value="true"/>
        <lefthand value="0"/>
    </processing>

    <junctions>
        <no-internal-links value="true"/>
        <no-turnarounds value="true"/>
        <junctions.corner-detail value="5"/>
        <junctions.limit-turn-speed value="5.50"/>
        <rectangular-lane-cut value="0"/>
    </junctions>

    <pedestrian>
        <walkingareas value="0"/>
    </pedestrian>

</configuration>
-->

<net version="1.9" junctionCornerDetail="5" limitTurnSpeed="5.50" xmlns:xsi="http://www.w3.org/2001/XMLSchema-instance" xsi:noNamespaceSchemaLocation="http://sumo.dlr.de/xsd/net_file.xsd">

    <location netOffset="0.00,0.00" convBoundary="50.00,50.00,350.00,50.00" origBoundary="-10000000000.00,-10000000000.00,10000000000.00,10000000000.00" projParameter="!"/>

    <edge id="E0" from="J0" to="J1" priority="-1" spreadType="center">
        <lane id="E0_0" index="0" speed="13.89" length="300.00" shape="50.00,46.80 350.00,46.80"/>
        <lane id="E0_1" index="1" speed="13.89" length="300.00" shape="50.00,50.00 350.00,50.00"/>
        <lane id="E0_2" index="2" speed="13.89" length="300.00" shape="50.00,53.20 350.00,53.20"/>
    </edge>

    <junction id="J0" type="dead_end" x="50.00" y="50.00" incLanes="" intLanes="" shape="50.00,54.80 50.00,45.20" customShape="1"/>
    <junction id="J1" type="dead_end" x="350.00" y="50.00" incLanes="E0_0 E0_1 E0_2" intLanes="" shape="350.00,45.20 350.00,54.80"/>

</net>
