<?xml version="1.0" encoding="UTF-8"?>

<!-- generated on 2023-04-27 12:28:48 by Eclipse SUMO netedit Version 1.15.0
<configuration xmlns:xsi="http://www.w3.org/2001/XMLSchema-instance" xsi:noNamespaceSchemaLocation="http://sumo.dlr.de/xsd/netconvertConfiguration.xsd">

    <input>
        <sumo-net-file value="/home/oscar/Dropbox/itsc2023/scenario/straight_with_left_turn/map.net.xml"/>
    </input>

    <output>
        <output-file value="/home/oscar/Dropbox/itsc2023/scenario/straight_with_left_turn/map.net.xml"/>
    </output>

    <processing>
        <geometry.min-radius.fix.railways value="false"/>
        <geometry.max-grade.fix value="false"/>
        <offset.disable-normalization value="true"/>
        <lefthand value="0"/>
    </processing>

    <junctions>
        <no-internal-links value="true"/>
        <no-turnarounds value="true"/>
        <junctions.corner-detail value="5"/>
        <junctions.limit-turn-speed value="5.50"/>
        <rectangular-lane-cut value="0"/>
    </junctions>

    <pedestrian>
        <walkingareas value="0"/>
    </pedestrian>

</configuration>
-->

<net version="1.9" junctionCornerDetail="5" limitTurnSpeed="5.50" xmlns:xsi="http://www.w3.org/2001/XMLSchema-instance" xsi:noNamespaceSchemaLocation="http://sumo.dlr.de/xsd/net_file.xsd">

    <location netOffset="0.00,0.00" convBoundary="-100.00,0.00,180.00,100.00" origBoundary="-10000000000.00,-10000000000.00,10000000000.00,10000000000.00" projParameter="!"/>

    <edge id="E1" from="J1" to="J2" priority="-1" spreadType="center" shape="-100.00,0.00 102.00,0.02 104.00,0.10 105.99,0.22 107.99,0.40 109.97,0.62 111.96,0.90 113.93,1.22 115.89,1.59 117.85,2.02 119.79,2.49 121.72,3.01 123.64,3.57 125.54,4.19 127.43,4.85 129.30,5.56 131.15,6.32 132.99,7.12 134.80,7.96 136.59,8.86 138.35,9.79 140.10,10.77 141.81,11.80 143.51,12.86 145.17,13.97 146.81,15.12 148.41,16.31 149.99,17.54 151.54,18.81 153.05,20.12 154.53,21.46 155.98,22.85 157.39,24.26 158.76,25.72 160.10,27.20 161.40,28.72 162.67,30.27 163.89,31.85 165.07,33.47 166.22,35.11 167.32,36.78 168.38,38.47 169.39,40.19 170.37,41.94 171.30,43.71 172.18,45.51 173.02,47.32 173.82,49.16 174.56,51.01 175.26,52.88 175.92,54.77 176.53,56.68 177.08,58.60 177.60,60.53 178.06,62.48 178.47,64.44 178.84,66.40 179.15,68.38 179.42,70.36 179.63,72.35 179.80,74.34 179.92,76.34 179.98,78.34 180.00,100.00">
        <lane id="E1_0" index="0" speed="13.89" length="345.66" shape="-100.00,-3.20 102.00,-3.18 104.16,-3.10 106.23,-2.97 108.31,-2.78 110.37,-2.55 112.44,-2.26 114.48,-1.93 116.53,-1.55 118.57,-1.10 120.58,-0.61 122.58,-0.07 124.58,0.51 126.56,1.16 128.53,1.84 130.48,2.58 132.40,3.37 134.30,4.20 136.19,5.08 138.06,6.02 139.88,6.98 141.71,8.00 143.48,9.07 145.25,10.17 146.98,11.33 148.68,12.53 150.35,13.76 151.99,15.04 153.60,16.36 155.17,17.73 156.71,19.12 158.22,20.56 159.69,22.03 161.11,23.55 162.50,25.09 163.85,26.67 165.17,28.28 166.45,29.93 167.67,31.61 168.87,33.31 170.01,35.05 171.12,36.81 172.17,38.60 173.18,40.41 174.15,42.26 175.07,44.13 175.94,46.01 176.77,47.93 177.54,49.85 178.27,51.79 178.95,53.76 179.59,55.75 180.16,57.74 180.70,59.75 181.18,61.78 181.61,63.82 181.99,65.86 182.32,67.92 182.60,69.98 182.82,72.05 182.99,74.11 183.12,76.20 183.18,78.29 183.20,100.00"/>
        <lane id="E1_1" index="1" speed="13.89" length="345.66" shape="-100.00,0.00 102.00,0.02 104.00,0.10 105.99,0.22 107.99,0.40 109.97,0.62 111.96,0.90 113.93,1.22 115.89,1.59 117.85,2.02 119.79,2.49 121.72,3.01 123.64,3.57 125.54,4.19 127.43,4.85 129.30,5.56 131.15,6.32 132.99,7.12 134.80,7.96 136.59,8.86 138.35,9.79 140.10,10.77 141.81,11.80 143.51,12.86 145.17,13.97 146.81,15.12 148.41,16.31 149.99,17.54 151.54,18.81 153.05,20.12 154.53,21.46 155.98,22.85 157.39,24.26 158.76,25.72 160.10,27.20 161.40,28.72 162.67,30.27 163.89,31.85 165.07,33.47 166.22,35.11 167.32,36.78 168.38,38.47 169.39,40.19 170.37,41.94 171.30,43.71 172.18,45.51 173.02,47.32 173.82,49.16 174.56,51.01 175.26,52.88 175.92,54.77 176.53,56.68 177.08,58.60 177.60,60.53 178.06,62.48 178.47,64.44 178.84,66.40 179.15,68.38 179.42,70.36 179.63,72.35 179.80,74.34 179.92,76.34 179.98,78.34 180.00,100.00"/>
        <lane id="E1_2" index="2" speed="13.89" length="345.66" shape="-100.00,3.20 102.00,3.22 103.84,3.30 105.75,3.41 107.67,3.58 109.57,3.79 111.48,4.06 113.38,4.37 115.25,4.73 117.13,5.14 119.00,5.59 120.86,6.09 122.70,6.63 124.52,7.22 126.33,7.86 128.12,8.54 129.90,9.27 131.68,10.04 133.41,10.84 135.12,11.70 136.82,12.60 138.49,13.54 140.14,14.53 141.77,15.55 143.36,16.61 144.94,17.71 146.47,18.86 147.99,20.04 149.48,21.26 150.93,22.51 152.35,23.80 153.74,25.14 155.09,26.49 156.41,27.89 157.70,29.31 158.95,30.77 160.17,32.26 161.33,33.77 162.47,35.33 163.57,36.91 164.63,38.51 165.64,40.13 166.61,41.78 167.56,43.47 168.45,45.16 169.29,46.89 170.10,48.63 170.87,50.39 171.58,52.17 172.25,53.97 172.89,55.78 173.47,57.61 174.00,59.46 174.50,61.31 174.94,63.18 175.33,65.06 175.69,66.94 175.98,68.84 176.24,70.74 176.44,72.65 176.61,74.57 176.72,76.48 176.78,78.39 176.80,100.00"/>
    </edge>

    <junction id="J1" type="dead_end" x="-100.00" y="0.00" incLanes="" intLanes="" shape="-100.00,4.80 -100.00,-4.80"/>
    <junction id="J2" type="dead_end" x="180.00" y="100.00" incLanes="E1_0 E1_1 E1_2" intLanes="" shape="184.80,100.00 175.20,100.00"/>

</net>
